Version 4
SHEET 1 880 680
WIRE 32 -112 -32 -112
WIRE 288 -112 224 -112
WIRE 32 -80 32 -112
WIRE 288 -80 288 -112
WIRE -32 -64 -32 -112
WIRE 224 -64 224 -112
WIRE 112 0 32 0
WIRE 32 16 32 0
WIRE 288 16 288 0
WIRE 112 48 112 0
WIRE 32 128 32 96
WIRE 32 128 -112 128
WIRE 96 128 32 128
WIRE 288 128 288 96
WIRE 288 128 256 128
WIRE 368 128 288 128
WIRE 416 128 368 128
WIRE 512 128 496 128
WIRE 512 144 512 128
WIRE -112 160 -112 128
WIRE -96 160 -112 160
WIRE 368 176 368 128
WIRE 368 176 208 176
FLAG -32 -64 0
FLAG 224 -64 0
FLAG 512 144 0
FLAG -96 160 OUT
IOPIN -96 160 Out
SYMBOL res 16 0 R0
SYMATTR InstName R1
SYMATTR Value 10K
SYMBOL res 272 0 R0
SYMATTR InstName R2
SYMATTR Value 10K
SYMBOL voltage 32 16 R180
WINDOW 0 24 96 Left 2
WINDOW 3 24 16 Left 2
WINDOW 123 0 0 Left 0
WINDOW 39 0 0 Left 0
SYMATTR InstName V1
SYMATTR Value 3.3V
SYMBOL voltage 288 16 R180
WINDOW 0 24 96 Left 2
WINDOW 3 24 16 Left 2
WINDOW 123 0 0 Left 0
WINDOW 39 0 0 Left 0
SYMATTR InstName V2
SYMATTR Value 5V
SYMBOL voltage 400 128 R270
WINDOW 0 -32 56 VBottom 2
WINDOW 3 -83 -87 VTop 2
WINDOW 123 0 0 Left 0
WINDOW 39 0 0 Left 0
SYMATTR InstName V3
SYMATTR Value PULSE(0 5V 1ms 1ms 1ms 500ms 1s)
SYMBOL AutoGenerated\\BSS138_Best 192 128 R90
SYMATTR InstName U1
TEXT -72 112 Left 2 ;3V3 SCL
TEXT 336 112 Left 2 ;5V SCL
TEXT -16 168 Left 2 !;op 10s
TEXT -16 144 Left 2 !.tran 10s
